[General]
debug-on-errors = true
record-eventlog = false
sim-time-limit = 1200s
tkenv-plugin-path = ../../../etc/plugins
#**.vector-recording = true
#**.scalar-recording = true

# Record all statistics
**.result-recording-modes=all

#smallNetwork.measure_interval = 20ms

network = smallNetwork

**.gateway.configXML = xmldoc("GatewayConfig.xml")
**.gateway.transformDelay = 40us
**.numberOfTT_Vlinks = 0
**.numberOfRC_Vlinks = 0
#**.totalNumberOfVlinks = 0

**.addressTableFile = "addressTable.txt"
**.agingTime = 10000s

# Global config
**.ct_marker = 0x03040506
**.ct_mask = -1

# Scheduling parameters for all modules:

# Tick length 80ns
**.scheduler.tick = 80ns

**.scheduler.numPeriods = 5
# 62500 ticks result in cycle time of 5ms
**.scheduler.period[0].cycle_ticks = sec_to_tick(600ms)
**.scheduler.period[0].offset_ticks = sec_to_tick(0ms)
# 62500 ticks result in cycle time of 5ms
**.scheduler.period[1].cycle_ticks = sec_to_tick(40ms)
**.scheduler.period[1].offset_ticks = sec_to_tick(0ms)
**.scheduler.period[2].cycle_ticks = sec_to_tick(100ms)
**.scheduler.period[2].offset_ticks = sec_to_tick(0ms)
**.scheduler.period[3].cycle_ticks = sec_to_tick(150ms)
**.scheduler.period[3].offset_ticks = sec_to_tick(0ms)
**.scheduler.period[4].cycle_ticks = sec_to_tick(200ms)
**.scheduler.period[4].offset_ticks = sec_to_tick(0ms)

# Maximum clock drift of 20ppm
**.scheduler.oscillator.max_drift = 200ppm
# Maximum clock drift change of 0.1ps per cycle
**.scheduler.oscillator.drift_change =  uniform(-50ppm,50ppm)
# precission of synchronisation
**.precission = 500ns

#Set queues in all buffers to a maximum of 10 frames:
#**.vl_*.size = 10

include gateway1.ini
include gateway2.ini
include switch.ini

#**.canNode1.numSourceApps = 1		
#**.canNode1.sinkApp.idIncomingFrames = ""						
**.canNode1.sourceApp[0].idDataFrames = "1,2,3,4"
**.canNode1.sourceApp[0].initialDataFrameOffset = "0,0,0,0"				
**.canNode1.sourceApp[0].periodicityDataFrames = "10,15,20,333"						
**.canNode1.sourceApp[0].dataLengthDataFrames = "8,8,8,8"

#**.canNode2.numSourceApps = 1	
**.canNode2.bufferIn[0].idIncomingFrames = "1,2,3"
#**.canNode2.sourceApp[0].idDataFrames = "2,3"
#**.canNode2.sourceApp[0].initialDataFrameOffset = "0, 0"					
#**.canNode2.sourceApp[0].periodicityDataFrames = "150,200"
#**.canNode2.sourceApp[0].dataLengthDataFrames = "4,5"
#**.canNode2.sourceApp[0].idRemoteFrames = "89"
#**.canNode2.sourceApp[0].periodicityRemoteFrames = "50"
#**.canNode2.sourceApp[0].initialRemoteFrameOffset = "0"
#**.canNode2.sourceApp[0].dataLengthRemoteFrames = "0"